EPRI_Ckt7_DER_Project/smart_meter_locations.csv
SmartMeter_ID,Load_Name,Bus1,Base_Bus,Phases,kV,kW,pf,xfkVA
SM_1,0862099-D1,S1X_0862099,S1X_0862099,3,0.208,0.0001,0.9,50
SM_2,0862099-D2,S2X_0862099,S2X_0862099,3,0.208,0.0001,0.9,50
SM_3,0862099-D3,S3X_0862099,S3X_0862099,3,0.208,0.0001,0.9,50
SM_4,1000663-DA1,S1X_1000663.1,S1X_1000663,1,0.24,0.0001,0.9,25
SM_5,1000663-DB1,S1X_1000663.2,S1X_1000663,1,0.24,0.0001,0.9,25
SM_6,1000663-DC1,S1X_1000663.3,S1X_1000663,1,0.24,0.0001,0.9,25
SM_7,1000252-DB1,S1X_1000252.2,S1X_1000252,1,0.24,0.0001,0.9,37
SM_8,1001746-D1,S1X_1001746,S1X_1001746,3,0.208,0.0001,0.9,100
SM_9,1001746-D2,S2X_1001746,S2X_1001746,3,0.208,0.0001,0.9,100
SM_10,1001746-D3,S3X_1001746,S3X_1001746,3,0.208,0.0001,0.9,100
SM_11,1000502-DB1,S1X_1000502.2,S1X_1000502,1,0.24,0.0001,0.9,75
SM_12,1000824-DA1,S1X_1000824.1,S1X_1000824,1,0.24,0.0001,0.9,8.333333
SM_13,1000824-DA2,S2X_1000824.1,S2X_1000824,1,0.24,0.0001,0.9,8.333333
SM_14,1000824-DA3,S3X_1000824.1,S3X_1000824,1,0.24,0.0001,0.9,8.333333
SM_15,1000824-DB1,S1X_1000824.2,S1X_1000824,1,0.24,0.0001,0.9,8.333333
SM_16,1000824-DB2,S2X_1000824.2,S2X_1000824,1,0.24,0.0001,0.9,8.333333
SM_17,1000824-DB3,S3X_1000824.2,S3X_1000824,1,0.24,0.0001,0.9,8.333333
SM_18,1000824-DC1,S1X_1000824.3,S1X_1000824,1,0.24,0.0001,0.9,8.333333
SM_19,1000824-DC2,S2X_1000824.3,S2X_1000824,1,0.24,0.0001,0.9,8.333333
SM_20,1000824-DC3,S3X_1000824.3,S3X_1000824,1,0.24,0.0001,0.9,8.333333
SM_21,1001745-D1,S1X_1001745,S1X_1001745,3,0.208,0.0001,0.9,100
SM_22,1001745-D2,S2X_1001745,S2X_1001745,3,0.208,0.0001,0.9,100
SM_23,1001745-D3,S3X_1001745,S3X_1001745,3,0.208,0.0001,0.9,100
SM_24,1001329-D1,S1X_1001329,S1X_1001329,3,0.208,0.0001,0.9,50
SM_25,1001329-D2,S2X_1001329,S2X_1001329,3,0.208,0.0001,0.9,50
SM_26,1001329-D3,S3X_1001329,S3X_1001329,3,0.208,0.0001,0.9,50
SM_27,1001359-D1,S1X_1001359,S1X_1001359,3,0.208,0.0001,0.9,166.67
SM_28,1001359-D2,S2X_1001359,S2X_1001359,3,0.208,0.0001,0.9,166.67
SM_29,1001359-D3,S3X_1001359,S3X_1001359,3,0.208,0.0001,0.9,166.67
SM_30,1001330-D1,S1X_1001330,S1X_1001330,3,0.208,0.0001,0.9,50
SM_31,1001330-D2,S2X_1001330,S2X_1001330,3,0.208,0.0001,0.9,50
SM_32,1001330-D3,S3X_1001330,S3X_1001330,3,0.208,0.0001,0.9,50
SM_33,1001330-D4,S4X_1001330,S4X_1001330,3,0.208,0.0001,0.9,50
SM_34,1001330-D5,S5X_1001330,S5X_1001330,3,0.208,0.0001,0.9,50
SM_35,1001330-D6,S6X_1001330,S6X_1001330,3,0.208,0.0001,0.9,50
SM_36,1000672-DA1,S1X_1000672.1,S1X_1000672,1,0.24,0.0001,0.9,25
SM_37,1001708-D1,S1X_1001708,S1X_1001708,3,0.208,0.0001,0.9,250
SM_38,1001708-D2,S2X_1001708,S2X_1001708,3,0.208,0.0001,0.9,250
SM_39,1001708-D3,S3X_1001708,S3X_1001708,3,0.208,0.0001,0.9,250
SM_40,1001345-D1,S1X_1001345,S1X_1001345,3,0.208,0.0001,0.9,50
SM_41,1001345-D2,S2X_1001345,S2X_1001345,3,0.208,0.0001,0.9,50
SM_42,1001345-D3,S3X_1001345,S3X_1001345,3,0.208,0.0001,0.9,50
SM_43,1000933-D1,S1X_1000933,S1X_1000933,3,0.208,0.0001,0.9,10
SM_44,1000933-D2,S2X_1000933,S2X_1000933,3,0.208,0.0001,0.9,10
SM_45,1000933-D3,S3X_1000933,S3X_1000933,3,0.208,0.0001,0.9,10
SM_46,1000933-D4,S4X_1000933,S4X_1000933,3,0.208,0.0001,0.9,10
SM_47,1000933-D5,S5X_1000933,S5X_1000933,3,0.208,0.0001,0.9,10
SM_48,1000933-D6,S6X_1000933,S6X_1000933,3,0.208,0.0001,0.9,10
SM_49,1000933-D7,S7X_1000933,S7X_1000933,3,0.208,0.0001,0.9,10
SM_50,1000933-D8,S8X_1000933,S8X_1000933,3,0.208,0.0001,0.9,10
SM_51,1000933-D9,S9X_1000933,S9X_1000933,3,0.208,0.0001,0.9,10
SM_52,1000933-D10,S10X_1000933,S10X_1000933,3,0.208,0.0001,0.9,10
SM_53,1000933-D11,S11X_1000933,S11X_1000933,3,0.208,0.0001,0.9,10
SM_54,1000933-D12,S12X_1000933,S12X_1000933,3,0.208,0.0001,0.9,10
SM_55,1000933-D13,S13X_1000933,S13X_1000933,3,0.208,0.0001,0.9,10
SM_56,1000933-D14,S14X_1000933,S14X_1000933,3,0.208,0.0001,0.9,10
SM_57,1000933-D15,S15X_1000933,S15X_1000933,3,0.208,0.0001,0.9,10
SM_58,1001823-DA1,S1X_1001823.1,S1X_1001823,1,0.24,0.0001,0.9,37
SM_59,1001822-DA1,S1X_1001822.1,S1X_1001822,1,0.24,0.0001,0.9,5
SM_60,1001822-DB1,S1X_1001822.2,S1X_1001822,1,0.24,0.0001,0.9,5
SM_61,1001822-DC1,S1X_1001822.3,S1X_1001822,1,0.24,0.0001,0.9,5
SM_62,1000042-DA1,S1X_1000042.1,S1X_1000042,1,0.24,0.0001,0.9,14.28571
SM_63,1000042-DA2,S2X_1000042.1,S2X_1000042,1,0.24,0.0001,0.9,14.28571
SM_64,1000042-DA3,S3X_1000042.1,S3X_1000042,1,0.24,0.0001,0.9,14.28571
SM_65,1000042-DA4,S4X_1000042.1,S4X_1000042,1,0.24,0.0001,0.9,14.28571
SM_66,1000042-DA5,S5X_1000042.1,S5X_1000042,1,0.24,0.0001,0.9,14.28571
SM_67,1000042-DA6,S6X_1000042.1,S6X_1000042,1,0.24,0.0001,0.9,14.28571
SM_68,1000042-DA7,S7X_1000042.1,S7X_1000042,1,0.24,0.0001,0.9,14.28571
SM_69,1000077-DA1,S1X_1000077.1,S1X_1000077,1,0.24,0.0001,0.9,8.333333
SM_70,1000077-DA2,S2X_1000077.1,S2X_1000077,1,0.24,0.0001,0.9,8.333333
SM_71,1000077-DA3,S3X_1000077.1,S3X_1000077,1,0.24,0.0001,0.9,8.333333
SM_72,1000077-DA4,S4X_1000077.1,S4X_1000077,1,0.24,0.0001,0.9,8.333333
SM_73,1000077-DA5,S5X_1000077.1,S5X_1000077,1,0.24,0.0001,0.9,8.333333
SM_74,1000077-DA6,S6X_1000077.1,S6X_1000077,1,0.24,0.0001,0.9,8.333333
SM_75,1000474-DA1,S1X_1000474.1,S1X_1000474,1,0.24,0.0001,0.9,10
SM_76,1000474-DA2,S2X_1000474.1,S2X_1000474,1,0.24,0.0001,0.9,10
SM_77,1000474-DA3,S3X_1000474.1,S3X_1000474,1,0.24,0.0001,0.9,10
SM_78,1000474-DA4,S4X_1000474.1,S4X_1000474,1,0.24,0.0001,0.9,10
SM_79,1000474-DA5,S5X_1000474.1,S5X_1000474,1,0.24,0.0001,0.9,10
SM_80,1000043-DA1,S1X_1000043.1,S1X_1000043,1,0.24,0.0001,0.9,8.333333
SM_81,1000043-DA2,S2X_1000043.1,S2X_1000043,1,0.24,0.0001,0.9,8.333333
SM_82,1000043-DA3,S3X_1000043.1,S3X_1000043,1,0.24,0.0001,0.9,8.333333
SM_83,1000043-DA4,S4X_1000043.1,S4X_1000043,1,0.24,0.0001,0.9,8.333333
SM_84,1000043-DA5,S5X_1000043.1,S5X_1000043,1,0.24,0.0001,0.9,8.333333
SM_85,1000043-DA6,S6X_1000043.1,S6X_1000043,1,0.24,0.0001,0.9,8.333333
SM_86,1001567-D1,S1X_1001567,S1X_1001567,3,0.208,0.0001,0.9,50
SM_87,1001567-D2,S2X_1001567,S2X_1001567,3,0.208,0.0001,0.9,50
SM_88,1001567-D3,S3X_1001567,S3X_1001567,3,0.208,0.0001,0.9,50
SM_89,1000233-DB1,S1X_1000233.2,S1X_1000233,1,0.24,0.0001,0.9,37
SM_90,1000569-D1,S1X_1000569,S1X_1000569,3,0.208,0.0001,0.9,100
SM_91,1000569-D2,S2X_1000569,S2X_1000569,3,0.208,0.0001,0.9,100
SM_92,1000569-D3,S3X_1000569,S3X_1000569,3,0.208,0.0001,0.9,100
SM_93,1000746-D1,S1X_1000746,S1X_1000746,3,0.208,0.0001,0.9,100
SM_94,1000746-D2,S2X_1000746,S2X_1000746,3,0.208,0.0001,0.9,100
SM_95,1000746-D3,S3X_1000746,S3X_1000746,3,0.208,0.0001,0.9,100
SM_96,1000608-DA1,S1X_1000608.1,S1X_1000608,1,0.24,0.0001,0.9,9.375
SM_97,1000608-DA2,S2X_1000608.1,S2X_1000608,1,0.24,0.0001,0.9,9.375
SM_98,1000608-DA3,S3X_1000608.1,S3X_1000608,1,0.24,0.0001,0.9,9.375
SM_99,1000608-DA4,S4X_1000608.1,S4X_1000608,1,0.24,0.0001,0.9,9.375
SM_100,1000608-DA5,S5X_1000608.1,S5X_1000608,1,0.24,0.0001,0.9,9.375
SM_101,1000608-DA6,S6X_1000608.1,S6X_1000608,1,0.24,0.0001,0.9,9.375
SM_102,1000608-DA7,S7X_1000608.1,S7X_1000608,1,0.24,0.0001,0.9,9.375
SM_103,1000608-DA8,S8X_1000608.1,S8X_1000608,1,0.24,0.0001,0.9,9.375
SM_104,1000609-DA1,S1X_1000609.1,S1X_1000609,1,0.24,0.0001,0.9,4.545455
SM_105,1000609-DA2,S2X_1000609.1,S2X_1000609,1,0.24,0.0001,0.9,4.545455
SM_106,1000609-DA3,S3X_1000609.1,S3X_1000609,1,0.24,0.0001,0.9,4.545455
SM_107,1000609-DA4,S4X_1000609.1,S4X_1000609,1,0.24,0.0001,0.9,4.545455
SM_108,1000609-DA5,S5X_1000609.1,S5X_1000609,1,0.24,0.0001,0.9,4.545455
SM_109,1000609-DA6,S6X_1000609.1,S6X_1000609,1,0.24,0.0001,0.9,4.545455
SM_110,1000609-DA7,S7X_1000609.1,S7X_1000609,1,0.24,0.0001,0.9,4.545455
SM_111,1000609-DA8,S8X_1000609.1,S8X_1000609,1,0.24,0.0001,0.9,4.545455
SM_112,1000609-DA9,S9X_1000609.1,S9X_1000609,1,0.24,0.0001,0.9,4.545455
SM_113,1000609-DA10,S10X_1000609.1,S10X_1000609,1,0.24,0.0001,0.9,4.545455
SM_114,1000609-DA11,S11X_1000609.1,S11X_1000609,1,0.24,0.0001,0.9,4.545455
SM_115,1000610-DA1,S1X_1000610.1,S1X_1000610,1,0.24,0.0001,0.9,9.090909
SM_116,1000610-DA2,S2X_1000610.1,S2X_1000610,1,0.24,0.0001,0.9,9.090909
SM_117,1000610-DA3,S3X_1000610.1,S3X_1000610,1,0.24,0.0001,0.9,9.090909
SM_118,1000610-DA4,S4X_1000610.1,S4X_1000610,1,0.24,0.0001,0.9,9.090909
SM_119,1000610-DA5,S5X_1000610.1,S5X_1000610,1,0.24,0.0001,0.9,9.090909
SM_120,1000610-DA6,S6X_1000610.1,S6X_1000610,1,0.24,0.0001,0.9,9.090909
SM_121,1000610-DA7,S7X_1000610.1,S7X_1000610,1,0.24,0.0001,0.9,9.090909
SM_122,1000610-DA8,S8X_1000610.1,S8X_1000610,1,0.24,0.0001,0.9,9.090909
SM_123,1000610-DA9,S9X_1000610.1,S9X_1000610,1,0.24,0.0001,0.9,9.090909
SM_124,1000610-DA10,S10X_1000610.1,S10X_1000610,1,0.24,0.0001,0.9,9.090909
SM_125,1000610-DA11,S11X_1000610.1,S11X_1000610,1,0.24,0.0001,0.9,9.090909
SM_126,1000611-DA1,S1X_1000611.1,S1X_1000611,1,0.24,0.0001,0.9,10
SM_127,1000611-DA2,S2X_1000611.1,S2X_1000611,1,0.24,0.0001,0.9,10
SM_128,1000611-DA3,S3X_1000611.1,S3X_1000611,1,0.24,0.0001,0.9,10
SM_129,1000611-DA4,S4X_1000611.1,S4X_1000611,1,0.24,0.0001,0.9,10
SM_130,1000611-DA5,S5X_1000611.1,S5X_1000611,1,0.24,0.0001,0.9,10
SM_131,1000612-DA1,S1X_1000612.1,S1X_1000612,1,0.24,0.0001,0.9,12.5
SM_132,1000612-DA2,S2X_1000612.1,S2X_1000612,1,0.24,0.0001,0.9,12.5
SM_133,1000612-DA3,S3X_1000612.1,S3X_1000612,1,0.24,0.0001,0.9,12.5
SM_134,1000612-DA4,S4X_1000612.1,S4X_1000612,1,0.24,0.0001,0.9,12.5
SM_135,1000612-DA5,S5X_1000612.1,S5X_1000612,1,0.24,0.0001,0.9,12.5
SM_136,1000612-DA6,S6X_1000612.1,S6X_1000612,1,0.24,0.0001,0.9,12.5
SM_137,1000612-DA7,S7X_1000612.1,S7X_1000612,1,0.24,0.0001,0.9,12.5
SM_138,1000612-DA8,S8X_1000612.1,S8X_1000612,1,0.24,0.0001,0.9,12.5
SM_139,1000598-DC1,S1X_1000598.3,S1X_1000598,1,0.24,0.0001,0.9,8.333333
SM_140,1000598-DC2,S2X_1000598.3,S2X_1000598,1,0.24,0.0001,0.9,8.333333
SM_141,1000598-DC3,S3X_1000598.3,S3X_1000598,1,0.24,0.0001,0.9,8.333333
SM_142,1000598-DC4,S4X_1000598.3,S4X_1000598,1,0.24,0.0001,0.9,8.333333
SM_143,1000598-DC5,S5X_1000598.3,S5X_1000598,1,0.24,0.0001,0.9,8.333333
SM_144,1000598-DC6,S6X_1000598.3,S6X_1000598,1,0.24,0.0001,0.9,8.333333
SM_145,1000598-DC7,S7X_1000598.3,S7X_1000598,1,0.24,0.0001,0.9,8.333333
SM_146,1000598-DC8,S8X_1000598.3,S8X_1000598,1,0.24,0.0001,0.9,8.333333
SM_147,1000598-DC9,S9X_1000598.3,S9X_1000598,1,0.24,0.0001,0.9,8.333333
SM_148,1000599-DC1,S1X_1000599.3,S1X_1000599,1,0.24,0.0001,0.9,6.818182
SM_149,1000599-DC2,S2X_1000599.3,S2X_1000599,1,0.24,0.0001,0.9,6.818182
SM_150,1000599-DC3,S3X_1000599.3,S3X_1000599,1,0.24,0.0001,0.9,6.818182
SM_151,1000599-DC4,S4X_1000599.3,S4X_1000599,1,0.24,0.0001,0.9,6.818182
SM_152,1000599-DC5,S5X_1000599.3,S5X_1000599,1,0.24,0.0001,0.9,6.818182
SM_153,1000599-DC6,S6X_1000599.3,S6X_1000599,1,0.24,0.0001,0.9,6.818182
SM_154,1000599-DC7,S7X_1000599.3,S7X_1000599,1,0.24,0.0001,0.9,6.818182
SM_155,1000599-DC8,S8X_1000599.3,S8X_1000599,1,0.24,0.0001,0.9,6.818182
SM_156,1000599-DC9,S9X_1000599.3,S9X_1000599,1,0.24,0.0001,0.9,6.818182
SM_157,1000599-DC10,S10X_1000599.3,S10X_1000599,1,0.24,0.0001,0.9,6.818182
SM_158,1000599-DC11,S11X_1000599.3,S11X_1000599,1,0.24,0.0001,0.9,6.818182
SM_159,1000600-DC1,S1X_1000600.3,S1X_1000600,1,0.24,0.0001,0.9,5.555555
SM_160,1000600-DC2,S2X_1000600.3,S2X_1000600,1,0.24,0.0001,0.9,5.555555
SM_161,1000600-DC3,S3X_1000600.3,S3X_1000600,1,0.24,0.0001,0.9,5.555555
SM_162,1000600-DC4,S4X_1000600.3,S4X_1000600,1,0.24,0.0001,0.9,5.555555
SM_163,1000600-DC5,S5X_1000600.3,S5X_1000600,1,0.24,0.0001,0.9,5.555555
SM_164,1000600-DC6,S6X_1000600.3,S6X_1000600,1,0.24,0.0001,0.9,5.555555
SM_165,1000600-DC7,S7X_1000600.3,S7X_1000600,1,0.24,0.0001,0.9,5.555555
SM_166,1000600-DC8,S8X_1000600.3,S8X_1000600,1,0.24,0.0001,0.9,5.555555
SM_167,1000600-DC9,S9X_1000600.3,S9X_1000600,1,0.24,0.0001,0.9,5.555555
SM_168,1000602-DC1,S1X_1000602.3,S1X_1000602,1,0.24,0.0001,0.9,6.25
SM_169,1000602-DC2,S2X_1000602.3,S2X_1000602,1,0.24,0.0001,0.9,6.25
SM_170,1000602-DC3,S3X_1000602.3,S3X_1000602,1,0.24,0.0001,0.9,6.25
SM_171,1000602-DC4,S4X_1000602.3,S4X_1000602,1,0.24,0.0001,0.9,6.25
SM_172,1000602-DC5,S5X_1000602.3,S5X_1000602,1,0.24,0.0001,0.9,6.25
SM_173,1000602-DC6,S6X_1000602.3,S6X_1000602,1,0.24,0.0001,0.9,6.25
SM_174,1000602-DC7,S7X_1000602.3,S7X_1000602,1,0.24,0.0001,0.9,6.25
SM_175,1000602-DC8,S8X_1000602.3,S8X_1000602,1,0.24,0.0001,0.9,6.25
SM_176,1000601-DC1,S1X_1000601.3,S1X_1000601,1,0.24,0.0001,0.9,6.25
SM_177,1000601-DC2,S2X_1000601.3,S2X_1000601,1,0.24,0.0001,0.9,6.25
SM_178,1000601-DC3,S3X_1000601.3,S3X_1000601,1,0.24,0.0001,0.9,6.25
SM_179,1000601-DC4,S4X_1000601.3,S4X_1000601,1,0.24,0.0001,0.9,6.25
SM_180,1000601-DC5,S5X_1000601.3,S5X_1000601,1,0.24,0.0001,0.9,6.25
SM_181,1000601-DC6,S6X_1000601.3,S6X_1000601,1,0.24,0.0001,0.9,6.25
SM_182,1000601-DC7,S7X_1000601.3,S7X_1000601,1,0.24,0.0001,0.9,6.25
SM_183,1000601-DC8,S8X_1000601.3,S8X_1000601,1,0.24,0.0001,0.9,6.25
SM_184,1000603-DB1,S1X_1000603.2,S1X_1000603,1,0.24,0.0001,0.9,10.71429
SM_185,1000603-DB2,S2X_1000603.2,S2X_1000603,1,0.24,0.0001,0.9,10.71429
SM_186,1000603-DB3,S3X_1000603.2,S3X_1000603,1,0.24,0.0001,0.9,10.71429
SM_187,1000603-DB4,S4X_1000603.2,S4X_1000603,1,0.24,0.0001,0.9,10.71429
SM_188,1000603-DB5,S5X_1000603.2,S5X_1000603,1,0.24,0.0001,0.9,10.71429
SM_189,1000603-DB6,S6X_1000603.2,S6X_1000603,1,0.24,0.0001,0.9,10.71429
SM_190,1000603-DB7,S7X_1000603.2,S7X_1000603,1,0.24,0.0001,0.9,10.71429
SM_191,1000604-DB1,S1X_1000604.2,S1X_1000604,1,0.24,0.0001,0.9,5
SM_192,1000604-DB2,S2X_1000604.2,S2X_1000604,1,0.24,0.0001,0.9,5
SM_193,1000604-DB3,S3X_1000604.2,S3X_1000604,1,0.24,0.0001,0.9,5
SM_194,1000604-DB4,S4X_1000604.2,S4X_1000604,1,0.24,0.0001,0.9,5
SM_195,1000604-DB5,S5X_1000604.2,S5X_1000604,1,0.24,0.0001,0.9,5
SM_196,1000604-DB6,S6X_1000604.2,S6X_1000604,1,0.24,0.0001,0.9,5
SM_197,1000604-DB7,S7X_1000604.2,S7X_1000604,1,0.24,0.0001,0.9,5
SM_198,1000604-DB8,S8X_1000604.2,S8X_1000604,1,0.24,0.0001,0.9,5
SM_199,1000604-DB9,S9X_1000604.2,S9X_1000604,1,0.24,0.0001,0.9,5
SM_200,1000604-DB10,S10X_1000604.2,S10X_1000604,1,0.24,0.0001,0.9,5
SM_201,1000604-DB11,S11X_1000604.2,S11X_1000604,1,0.24,0.0001,0.9,5
SM_202,1000604-DB12,S12X_1000604.2,S12X_1000604,1,0.24,0.0001,0.9,5
SM_203,1000604-DB13,S13X_1000604.2,S13X_1000604,1,0.24,0.0001,0.9,5
SM_204,1000604-DB14,S14X_1000604.2,S14X_1000604,1,0.24,0.0001,0.9,5
SM_205,1000604-DB15,S15X_1000604.2,S15X_1000604,1,0.24,0.0001,0.9,5
SM_206,1000605-DB1,S1X_1000605.2,S1X_1000605,1,0.24,0.0001,0.9,9.090909
SM_207,1000605-DB2,S2X_1000605.2,S2X_1000605,1,0.24,0.0001,0.9,9.090909
SM_208,1000605-DB3,S3X_1000605.2,S3X_1000605,1,0.24,0.0001,0.9,9.090909
SM_209,1000605-DB4,S4X_1000605.2,S4X_1000605,1,0.24,0.0001,0.9,9.090909
SM_210,1000605-DB5,S5X_1000605.2,S5X_1000605,1,0.24,0.0001,0.9,9.090909
SM_211,1000605-DB6,S6X_1000605.2,S6X_1000605,1,0.24,0.0001,0.9,9.090909
SM_212,1000605-DB7,S7X_1000605.2,S7X_1000605,1,0.24,0.0001,0.9,9.090909
SM_213,1000605-DB8,S8X_1000605.2,S8X_1000605,1,0.24,0.0001,0.9,9.090909
SM_214,1000605-DB9,S9X_1000605.2,S9X_1000605,1,0.24,0.0001,0.9,9.090909
SM_215,1000605-DB10,S10X_1000605.2,S10X_1000605,1,0.24,0.0001,0.9,9.090909
SM_216,1000605-DB11,S11X_1000605.2,S11X_1000605,1,0.24,0.0001,0.9,9.090909
SM_217,1000606-DB1,S1X_1000606.2,S1X_1000606,1,0.24,0.0001,0.9,6.25
SM_218,1000606-DB2,S2X_1000606.2,S2X_1000606,1,0.24,0.0001,0.9,6.25
SM_219,1000606-DB3,S3X_1000606.2,S3X_1000606,1,0.24,0.0001,0.9,6.25
SM_220,1000606-DB4,S4X_1000606.2,S4X_1000606,1,0.24,0.0001,0.9,6.25
SM_221,1000606-DB5,S5X_1000606.2,S5X_1000606,1,0.24,0.0001,0.9,6.25
SM_222,1000606-DB6,S6X_1000606.2,S6X_1000606,1,0.24,0.0001,0.9,6.25
SM_223,1000606-DB7,S7X_1000606.2,S7X_1000606,1,0.24,0.0001,0.9,6.25
SM_224,1000606-DB8,S8X_1000606.2,S8X_1000606,1,0.24,0.0001,0.9,6.25
SM_225,1000606-DB9,S9X_1000606.2,S9X_1000606,1,0.24,0.0001,0.9,6.25
SM_226,1000606-DB10,S10X_1000606.2,S10X_1000606,1,0.24,0.0001,0.9,6.25
SM_227,1000606-DB11,S11X_1000606.2,S11X_1000606,1,0.24,0.0001,0.9,6.25
SM_228,1000606-DB12,S12X_1000606.2,S12X_1000606,1,0.24,0.0001,0.9,6.25
SM_229,1000607-DB1,S1X_1000607.2,S1X_1000607,1,0.24,0.0001,0.9,6.25
SM_230,1000607-DB2,S2X_1000607.2,S2X_1000607,1,0.24,0.0001,0.9,6.25
SM_231,1000607-DB3,S3X_1000607.2,S3X_1000607,1,0.24,0.0001,0.9,6.25
SM_232,1000607-DB4,S4X_1000607.2,S4X_1000607,1,0.24,0.0001,0.9,6.25
SM_233,1000607-DB5,S5X_1000607.2,S5X_1000607,1,0.24,0.0001,0.9,6.25
SM_234,1000607-DB6,S6X_1000607.2,S6X_1000607,1,0.24,0.0001,0.9,6.25
SM_235,1000607-DB7,S7X_1000607.2,S7X_1000607,1,0.24,0.0001,0.9,6.25
SM_236,1000607-DB8,S8X_1000607.2,S8X_1000607,1,0.24,0.0001,0.9,6.25
SM_237,1001933-D1,S1X_1001933,S1X_1001933,3,0.208,0.0001,0.9,333.33
SM_238,1001933-D2,S2X_1001933,S2X_1001933,3,0.208,0.0001,0.9,333.33
SM_239,1001933-D3,S3X_1001933,S3X_1001933,3,0.208,0.0001,0.9,333.33
SM_240,1000198-DA1,S1X_1000198.1,S1X_1000198,1,0.24,0.0001,0.9,10
SM_241,1000548-DA1,S1X_1000548.1,S1X_1000548,1,0.24,0.0001,0.9,50
SM_242,1000069-D1,S1X_1000069,S1X_1000069,3,0.208,0.0001,0.9,50
SM_243,1000069-D2,S2X_1000069,S2X_1000069,3,0.208,0.0001,0.9,50
SM_244,1000069-D3,S3X_1000069,S3X_1000069,3,0.208,0.0001,0.9,50
SM_245,1000069-D4,S4X_1000069,S4X_1000069,3,0.208,0.0001,0.9,50
SM_246,1000069-D5,S5X_1000069,S5X_1000069,3,0.208,0.0001,0.9,50
SM_247,1000069-D6,S6X_1000069,S6X_1000069,3,0.208,0.0001,0.9,50
SM_248,1000531-DA1,S1X_1000531.1,S1X_1000531,1,0.24,0.0001,0.9,6.818182
SM_249,1000531-DA2,S2X_1000531.1,S2X_1000531,1,0.24,0.0001,0.9,6.818182
SM_250,1000531-DA3,S3X_1000531.1,S3X_1000531,1,0.24,0.0001,0.9,6.818182
SM_251,1000531-DA4,S4X_1000531.1,S4X_1000531,1,0.24,0.0001,0.9,6.818182
SM_252,1000531-DA5,S5X_1000531.1,S5X_1000531,1,0.24,0.0001,0.9,6.818182
SM_253,1000531-DA6,S6X_1000531.1,S6X_1000531,1,0.24,0.0001,0.9,6.818182
SM_254,1000531-DA7,S7X_1000531.1,S7X_1000531,1,0.24,0.0001,0.9,6.818182
SM_255,1000531-DA8,S8X_1000531.1,S8X_1000531,1,0.24,0.0001,0.9,6.818182
SM_256,1000531-DA9,S9X_1000531.1,S9X_1000531,1,0.24,0.0001,0.9,6.818182
SM_257,1000531-DA10,S10X_1000531.1,S10X_1000531,1,0.24,0.0001,0.9,6.818182
SM_258,1000531-DA11,S11X_1000531.1,S11X_1000531,1,0.24,0.0001,0.9,6.818182
SM_259,1000533-DA1,S1X_1000533.1,S1X_1000533,1,0.24,0.0001,0.9,6.818182
SM_260,1000533-DA2,S2X_1000533.1,S2X_1000533,1,0.24,0.0001,0.9,6.818182
SM_261,1000533-DA3,S3X_1000533.1,S3X_1000533,1,0.24,0.0001,0.9,6.818182
SM_262,1000533-DA4,S4X_1000533.1,S4X_1000533,1,0.24,0.0001,0.9,6.818182
SM_263,1000533-DA5,S5X_1000533.1,S5X_1000533,1,0.24,0.0001,0.9,6.818182
SM_264,1000533-DA6,S6X_1000533.1,S6X_1000533,1,0.24,0.0001,0.9,6.818182
SM_265,1000533-DA7,S7X_1000533.1,S7X_1000533,1,0.24,0.0001,0.9,6.818182
SM_266,1000533-DA8,S8X_1000533.1,S8X_1000533,1,0.24,0.0001,0.9,6.818182
SM_267,1000533-DA9,S9X_1000533.1,S9X_1000533,1,0.24,0.0001,0.9,6.818182
SM_268,1000533-DA10,S10X_1000533.1,S10X_1000533,1,0.24,0.0001,0.9,6.818182
SM_269,1000533-DA11,S11X_1000533.1,S11X_1000533,1,0.24,0.0001,0.9,6.818182
SM_270,1000532-DA1,S1X_1000532.1,S1X_1000532,1,0.24,0.0001,0.9,9.090909
SM_271,1000532-DA2,S2X_1000532.1,S2X_1000532,1,0.24,0.0001,0.9,9.090909
SM_272,1000532-DA3,S3X_1000532.1,S3X_1000532,1,0.24,0.0001,0.9,9.090909
SM_273,1000532-DA4,S4X_1000532.1,S4X_1000532,1,0.24,0.0001,0.9,9.090909
SM_274,1000532-DA5,S5X_1000532.1,S5X_1000532,1,0.24,0.0001,0.9,9.090909
SM_275,1000532-DA6,S6X_1000532.1,S6X_1000532,1,0.24,0.0001,0.9,9.090909
SM_276,1000532-DA7,S7X_1000532.1,S7X_1000532,1,0.24,0.0001,0.9,9.090909
SM_277,1000532-DA8,S8X_1000532.1,S8X_1000532,1,0.24,0.0001,0.9,9.090909
SM_278,1000532-DA9,S9X_1000532.1,S9X_1000532,1,0.24,0.0001,0.9,9.090909
SM_279,1000532-DA10,S10X_1000532.1,S10X_1000532,1,0.24,0.0001,0.9,9.090909
SM_280,1000532-DA11,S11X_1000532.1,S11X_1000532,1,0.24,0.0001,0.9,9.090909
SM_281,1000582-DA1,S1X_1000582.1,S1X_1000582,1,0.24,0.0001,0.9,7.142857
SM_282,1000582-DA2,S2X_1000582.1,S2X_1000582,1,0.24,0.0001,0.9,7.142857
SM_283,1000582-DA3,S3X_1000582.1,S3X_1000582,1,0.24,0.0001,0.9,7.142857
SM_284,1000582-DA4,S4X_1000582.1,S4X_1000582,1,0.24,0.0001,0.9,7.142857
SM_285,1000582-DA5,S5X_1000582.1,S5X_1000582,1,0.24,0.0001,0.9,7.142857
SM_286,1000582-DA6,S6X_1000582.1,S6X_1000582,1,0.24,0.0001,0.9,7.142857
SM_287,1000582-DA7,S7X_1000582.1,S7X_1000582,1,0.24,0.0001,0.9,7.142857
SM_288,1000581-DA1,S1X_1000581.1,S1X_1000581,1,0.24,0.0001,0.9,6.25
SM_289,1000581-DA2,S2X_1000581.1,S2X_1000581,1,0.24,0.0001,0.9,6.25
SM_290,1000581-DA3,S3X_1000581.1,S3X_1000581,1,0.24,0.0001,0.9,6.25
SM_291,1000581-DA4,S4X_1000581.1,S4X_1000581,1,0.24,0.0001,0.9,6.25
SM_292,1000581-DA5,S5X_1000581.1,S5X_1000581,1,0.24,0.0001,0.9,6.25
SM_293,1000581-DA6,S6X_1000581.1,S6X_1000581,1,0.24,0.0001,0.9,6.25
SM_294,1000581-DA7,S7X_1000581.1,S7X_1000581,1,0.24,0.0001,0.9,6.25
SM_295,1000581-DA8,S8X_1000581.1,S8X_1000581,1,0.24,0.0001,0.9,6.25
SM_296,1000537-DA1,S1X_1000537.1,S1X_1000537,1,0.24,0.0001,0.9,5.769231
SM_297,1000537-DA2,S2X_1000537.1,S2X_1000537,1,0.24,0.0001,0.9,5.769231
SM_298,1000537-DA3,S3X_1000537.1,S3X_1000537,1,0.24,0.0001,0.9,5.769231
SM_299,1000537-DA4,S4X_1000537.1,S4X_1000537,1,0.24,0.0001,0.9,5.769231
SM_300,1000537-DA5,S5X_1000537.1,S5X_1000537,1,0.24,0.0001,0.9,5.769231
SM_301,1000537-DA6,S6X_1000537.1,S6X_1000537,1,0.24,0.0001,0.9,5.769231
SM_302,1000537-DA7,S7X_1000537.1,S7X_1000537,1,0.24,0.0001,0.9,5.769231
SM_303,1000537-DA8,S8X_1000537.1,S8X_1000537,1,0.24,0.0001,0.9,5.769231
SM_304,1000537-DA9,S9X_1000537.1,S9X_1000537,1,0.24,0.0001,0.9,5.769231
SM_305,1000537-DA10,S10X_1000537.1,S10X_1000537,1,0.24,0.0001,0.9,5.769231
SM_306,1000537-DA11,S11X_1000537.1,S11X_1000537,1,0.24,0.0001,0.9,5.769231
SM_307,1000537-DA12,S12X_1000537.1,S12X_1000537,1,0.24,0.0001,0.9,5.769231
SM_308,1000537-DA13,S13X_1000537.1,S13X_1000537,1,0.24,0.0001,0.9,5.769231
SM_309,1000536-DA1,S1X_1000536.1,S1X_1000536,1,0.24,0.0001,0.9,9.090909
SM_310,1000536-DA2,S2X_1000536.1,S2X_1000536,1,0.24,0.0001,0.9,9.090909
SM_311,1000536-DA3,S3X_1000536.1,S3X_1000536,1,0.24,0.0001,0.9,9.090909
SM_312,1000536-DA4,S4X_1000536.1,S4X_1000536,1,0.24,0.0001,0.9,9.090909
SM_313,1000536-DA5,S5X_1000536.1,S5X_1000536,1,0.24,0.0001,0.9,9.090909
SM_314,1000536-DA6,S6X_1000536.1,S6X_1000536,1,0.24,0.0001,0.9,9.090909
SM_315,1000536-DA7,S7X_1000536.1,S7X_1000536,1,0.24,0.0001,0.9,9.090909
SM_316,1000536-DA8,S8X_1000536.1,S8X_1000536,1,0.24,0.0001,0.9,9.090909
SM_317,1000536-DA9,S9X_1000536.1,S9X_1000536,1,0.24,0.0001,0.9,9.090909
SM_318,1000536-DA10,S10X_1000536.1,S10X_1000536,1,0.24,0.0001,0.9,9.090909
SM_319,1000536-DA11,S11X_1000536.1,S11X_1000536,1,0.24,0.0001,0.9,9.090909
SM_320,1000534-DC1,S1X_1000534.3,S1X_1000534,1,0.24,0.0001,0.9,2.272727
SM_321,1000534-DC2,S2X_1000534.3,S2X_1000534,1,0.24,0.0001,0.9,2.272727
SM_322,1000534-DC3,S3X_1000534.3,S3X_1000534,1,0.24,0.0001,0.9,2.272727
SM_323,1000534-DC4,S4X_1000534.3,S4X_1000534,1,0.24,0.0001,0.9,2.272727
SM_324,1000534-DC5,S5X_1000534.3,S5X_1000534,1,0.24,0.0001,0.9,2.272727
SM_325,1000534-DC6,S6X_1000534.3,S6X_1000534,1,0.24,0.0001,0.9,2.272727
SM_326,1000534-DC7,S7X_1000534.3,S7X_1000534,1,0.24,0.0001,0.9,2.272727
SM_327,1000534-DC8,S8X_1000534.3,S8X_1000534,1,0.24,0.0001,0.9,2.272727
SM_328,1000534-DC9,S9X_1000534.3,S9X_1000534,1,0.24,0.0001,0.9,2.272727
SM_329,1000534-DC10,S10X_1000534.3,S10X_1000534,1,0.24,0.0001,0.9,2.272727
SM_330,1000534-DC11,S11X_1000534.3,S11X_1000534,1,0.24,0.0001,0.9,2.272727
SM_331,1000535-DC1,S1X_1000535.3,S1X_1000535,1,0.24,0.0001,0.9,9.090909
SM_332,1000535-DC2,S2X_1000535.3,S2X_1000535,1,0.24,0.0001,0.9,9.090909
SM_333,1000535-DC3,S3X_1000535.3,S3X_1000535,1,0.24,0.0001,0.9,9.090909
SM_334,1000535-DC4,S4X_1000535.3,S4X_1000535,1,0.24,0.0001,0.9,9.090909
SM_335,1000535-DC5,S5X_1000535.3,S5X_1000535,1,0.24,0.0001,0.9,9.090909
SM_336,1000535-DC6,S6X_1000535.3,S6X_1000535,1,0.24,0.0001,0.9,9.090909
SM_337,1000535-DC7,S7X_1000535.3,S7X_1000535,1,0.24,0.0001,0.9,9.090909
SM_338,1000535-DC8,S8X_1000535.3,S8X_1000535,1,0.24,0.0001,0.9,9.090909
SM_339,1000535-DC9,S9X_1000535.3,S9X_1000535,1,0.24,0.0001,0.9,9.090909
SM_340,1000535-DC10,S10X_1000535.3,S10X_1000535,1,0.24,0.0001,0.9,9.090909
SM_341,1000535-DC11,S11X_1000535.3,S11X_1000535,1,0.24,0.0001,0.9,9.090909
SM_342,1000586-DC1,S1X_1000586.3,S1X_1000586,1,0.24,0.0001,0.9,12.5
SM_343,1000586-DC2,S2X_1000586.3,S2X_1000586,1,0.24,0.0001,0.9,12.5
SM_344,1000586-DC3,S3X_1000586.3,S3X_1000586,1,0.24,0.0001,0.9,12.5
SM_345,1000586-DC4,S4X_1000586.3,S4X_1000586,1,0.24,0.0001,0.9,12.5
SM_346,1000589-DC1,S1X_1000589.3,S1X_1000589,1,0.24,0.0001,0.9,10
SM_347,1000589-DC2,S2X_1000589.3,S2X_1000589,1,0.24,0.0001,0.9,10
SM_348,1000589-DC3,S3X_1000589.3,S3X_1000589,1,0.24,0.0001,0.9,10
SM_349,1000589-DC4,S4X_1000589.3,S4X_1000589,1,0.24,0.0001,0.9,10
SM_350,1000589-DC5,S5X_1000589.3,S5X_1000589,1,0.24,0.0001,0.9,10
SM_351,1000589-DC6,S6X_1000589.3,S6X_1000589,1,0.24,0.0001,0.9,10
SM_352,1000589-DC7,S7X_1000589.3,S7X_1000589,1,0.24,0.0001,0.9,10
SM_353,1000589-DC8,S8X_1000589.3,S8X_1000589,1,0.24,0.0001,0.9,10
SM_354,1000589-DC9,S9X_1000589.3,S9X_1000589,1,0.24,0.0001,0.9,10
SM_355,1000589-DC10,S10X_1000589.3,S10X_1000589,1,0.24,0.0001,0.9,10
SM_356,1000587-DC1,S1X_1000587.3,S1X_1000587,1,0.24,0.0001,0.9,6.818182
SM_357,1000587-DC2,S2X_1000587.3,S2X_1000587,1,0.24,0.0001,0.9,6.818182
SM_358,1000587-DC3,S3X_1000587.3,S3X_1000587,1,0.24,0.0001,0.9,6.818182
SM_359,1000587-DC4,S4X_1000587.3,S4X_1000587,1,0.24,0.0001,0.9,6.818182
SM_360,1000587-DC5,S5X_1000587.3,S5X_1000587,1,0.24,0.0001,0.9,6.818182
SM_361,1000587-DC6,S6X_1000587.3,S6X_1000587,1,0.24,0.0001,0.9,6.818182
SM_362,1000587-DC7,S7X_1000587.3,S7X_1000587,1,0.24,0.0001,0.9,6.818182
SM_363,1000587-DC8,S8X_1000587.3,S8X_1000587,1,0.24,0.0001,0.9,6.818182
SM_364,1000587-DC9,S9X_1000587.3,S9X_1000587,1,0.24,0.0001,0.9,6.818182
SM_365,1000587-DC10,S10X_1000587.3,S10X_1000587,1,0.24,0.0001,0.9,6.818182
SM_366,1000587-DC11,S11X_1000587.3,S11X_1000587,1,0.24,0.0001,0.9,6.818182
SM_367,1000588-DC1,S1X_1000588.3,S1X_1000588,1,0.24,0.0001,0.9,7.5
SM_368,1000588-DC2,S2X_1000588.3,S2X_1000588,1,0.24,0.0001,0.9,7.5
SM_369,1000588-DC3,S3X_1000588.3,S3X_1000588,1,0.24,0.0001,0.9,7.5
SM_370,1000588-DC4,S4X_1000588.3,S4X_1000588,1,0.24,0.0001,0.9,7.5
SM_371,1000588-DC5,S5X_1000588.3,S5X_1000588,1,0.24,0.0001,0.9,7.5
SM_372,1000588-DC6,S6X_1000588.3,S6X_1000588,1,0.24,0.0001,0.9,7.5
SM_373,1000588-DC7,S7X_1000588.3,S7X_1000588,1,0.24,0.0001,0.9,7.5
SM_374,1000588-DC8,S8X_1000588.3,S8X_1000588,1,0.24,0.0001,0.9,7.5
SM_375,1000588-DC9,S9X_1000588.3,S9X_1000588,1,0.24,0.0001,0.9,7.5
SM_376,1000588-DC10,S10X_1000588.3,S10X_1000588,1,0.24,0.0001,0.9,7.5
SM_377,1000585-DC1,S1X_1000585.3,S1X_1000585,1,0.24,0.0001,0.9,8.333333
SM_378,1000585-DC2,S2X_1000585.3,S2X_1000585,1,0.24,0.0001,0.9,8.333333
SM_379,1000585-DC3,S3X_1000585.3,S3X_1000585,1,0.24,0.0001,0.9,8.333333
SM_380,1000585-DC4,S4X_1000585.3,S4X_1000585,1,0.24,0.0001,0.9,8.333333
SM_381,1000585-DC5,S5X_1000585.3,S5X_1000585,1,0.24,0.0001,0.9,8.333333
SM_382,1000585-DC6,S6X_1000585.3,S6X_1000585,1,0.24,0.0001,0.9,8.333333
SM_383,1000584-DC1,S1X_1000584.3,S1X_1000584,1,0.24,0.0001,0.9,7.692307
SM_384,1000584-DC2,S2X_1000584.3,S2X_1000584,1,0.24,0.0001,0.9,7.692307
SM_385,1000584-DC3,S3X_1000584.3,S3X_1000584,1,0.24,0.0001,0.9,7.692307
SM_386,1000584-DC4,S4X_1000584.3,S4X_1000584,1,0.24,0.0001,0.9,7.692307
SM_387,1000584-DC5,S5X_1000584.3,S5X_1000584,1,0.24,0.0001,0.9,7.692307
SM_388,1000584-DC6,S6X_1000584.3,S6X_1000584,1,0.24,0.0001,0.9,7.692307
SM_389,1000584-DC7,S7X_1000584.3,S7X_1000584,1,0.24,0.0001,0.9,7.692307
SM_390,1000584-DC8,S8X_1000584.3,S8X_1000584,1,0.24,0.0001,0.9,7.692307
SM_391,1000584-DC9,S9X_1000584.3,S9X_1000584,1,0.24,0.0001,0.9,7.692307
SM_392,1000584-DC10,S10X_1000584.3,S10X_1000584,1,0.24,0.0001,0.9,7.692307
SM_393,1000584-DC11,S11X_1000584.3,S11X_1000584,1,0.24,0.0001,0.9,7.692307
SM_394,1000584-DC12,S12X_1000584.3,S12X_1000584,1,0.24,0.0001,0.9,7.692307
SM_395,1000584-DC13,S13X_1000584.3,S13X_1000584,1,0.24,0.0001,0.9,7.692307
SM_396,1000583-DC1,S1X_1000583.3,S1X_1000583,1,0.24,0.0001,0.9,7.5
SM_397,1000583-DC2,S2X_1000583.3,S2X_1000583,1,0.24,0.0001,0.9,7.5
SM_398,1000583-DC3,S3X_1000583.3,S3X_1000583,1,0.24,0.0001,0.9,7.5
SM_399,1000583-DC4,S4X_1000583.3,S4X_1000583,1,0.24,0.0001,0.9,7.5
SM_400,1000583-DC5,S5X_1000583.3,S5X_1000583,1,0.24,0.0001,0.9,7.5
SM_401,1000583-DC6,S6X_1000583.3,S6X_1000583,1,0.24,0.0001,0.9,7.5
SM_402,1000583-DC7,S7X_1000583.3,S7X_1000583,1,0.24,0.0001,0.9,7.5
SM_403,1000583-DC8,S8X_1000583.3,S8X_1000583,1,0.24,0.0001,0.9,7.5
SM_404,1000583-DC9,S9X_1000583.3,S9X_1000583,1,0.24,0.0001,0.9,7.5
SM_405,1000583-DC10,S10X_1000583.3,S10X_1000583,1,0.24,0.0001,0.9,7.5
SM_406,1000016-DB1,S1X_1000016.2,S1X_1000016,1,0.24,0.0001,0.9,6.25
SM_407,1000016-DB2,S2X_1000016.2,S2X_1000016,1,0.24,0.0001,0.9,6.25
SM_408,1000016-DB3,S3X_1000016.2,S3X_1000016,1,0.24,0.0001,0.9,6.25
SM_409,1000016-DB4,S4X_1000016.2,S4X_1000016,1,0.24,0.0001,0.9,6.25
SM_410,1000015-DA1,S1X_1000015.1,S1X_1000015,1,0.24,0.0001,0.9,10
SM_411,1000015-DA2,S2X_1000015.1,S2X_1000015,1,0.24,0.0001,0.9,10
SM_412,1000015-DA3,S3X_1000015.1,S3X_1000015,1,0.24,0.0001,0.9,10
SM_413,1000015-DA4,S4X_1000015.1,S4X_1000015,1,0.24,0.0001,0.9,10
SM_414,1000015-DA5,S5X_1000015.1,S5X_1000015,1,0.24,0.0001,0.9,10
SM_415,1000764-D1,S1X_1000764,S1X_1000764,3,0.208,0.0001,0.9,166.665
SM_416,1000764-D2,S2X_1000764,S2X_1000764,3,0.208,0.0001,0.9,166.665
SM_417,1000764-D3,S3X_1000764,S3X_1000764,3,0.208,0.0001,0.9,166.665
SM_418,1000764-D4,S4X_1000764,S4X_1000764,3,0.208,0.0001,0.9,166.665
SM_419,1000764-D5,S5X_1000764,S5X_1000764,3,0.208,0.0001,0.9,166.665
SM_420,1000764-D6,S6X_1000764,S6X_1000764,3,0.208,0.0001,0.9,166.665
SM_421,1000199-DA1,S1X_1000199.1,S1X_1000199,1,0.24,0.0001,0.9,15
SM_422,1000199-DB1,S1X_1000199.2,S1X_1000199,1,0.24,0.0001,0.9,15
SM_423,1000199-DC1,S1X_1000199.3,S1X_1000199,1,0.24,0.0001,0.9,15
SM_424,1000567-D1,S1X_1000567,S1X_1000567,3,0.208,0.0001,0.9,100
SM_425,1000567-D2,S2X_1000567,S2X_1000567,3,0.208,0.0001,0.9,100
SM_426,1000567-D3,S3X_1000567,S3X_1000567,3,0.208,0.0001,0.9,100
SM_427,1001665-D1,S1X_1001665,S1X_1001665,3,0.208,0.0001,0.9,333.33
SM_428,1001665-D2,S2X_1001665,S2X_1001665,3,0.208,0.0001,0.9,333.33
SM_429,1001665-D3,S3X_1001665,S3X_1001665,3,0.208,0.0001,0.9,333.33
SM_430,1001577-D1,S1X_1001577,S1X_1001577,3,0.208,0.0001,0.9,666.67
SM_431,1001577-D2,S2X_1001577,S2X_1001577,3,0.208,0.0001,0.9,666.67
SM_432,1001577-D3,S3X_1001577,S3X_1001577,3,0.208,0.0001,0.9,666.67
SM_433,1002055-DA1,S1X_1002055.1,S1X_1002055,1,0.24,0.0001,0.9,25
SM_434,1002055-DB1,S1X_1002055.2,S1X_1002055,1,0.24,0.0001,0.9,25
SM_435,1002055-DC1,S1X_1002055.3,S1X_1002055,1,0.24,0.0001,0.9,25
SM_436,1000538-DA1,S1X_1000538.1,S1X_1000538,1,0.24,0.0001,0.9,15
SM_437,1000538-DB1,S1X_1000538.2,S1X_1000538,1,0.24,0.0001,0.9,15
SM_438,1000538-DC1,S1X_1000538.3,S1X_1000538,1,0.24,0.0001,0.9,15
SM_439,1000087-DA1,S1X_1000087.1,S1X_1000087,1,0.24,0.0001,0.9,15
SM_440,1000087-DB1,S1X_1000087.2,S1X_1000087,1,0.24,0.0001,0.9,15
SM_441,1000087-DC1,S1X_1000087.3,S1X_1000087,1,0.24,0.0001,0.9,15
SM_442,1000070-DB1,S1X_1000070.2,S1X_1000070,1,0.24,0.0001,0.9,20
SM_443,1000070-DB2,S2X_1000070.2,S2X_1000070,1,0.24,0.0001,0.9,20
SM_444,1000070-DB3,S3X_1000070.2,S3X_1000070,1,0.24,0.0001,0.9,20
SM_445,1000070-DB4,S4X_1000070.2,S4X_1000070,1,0.24,0.0001,0.9,20
SM_446,1000070-DB5,S5X_1000070.2,S5X_1000070,1,0.24,0.0001,0.9,20
SM_447,1000071-DA1,S1X_1000071.1,S1X_1000071,1,0.24,0.0001,0.9,15
SM_448,1000071-DB1,S1X_1000071.2,S1X_1000071,1,0.24,0.0001,0.9,15
SM_449,1000071-DC1,S1X_1000071.3,S1X_1000071,1,0.24,0.0001,0.9,15
SM_450,1000119-DB1,S1X_1000119.2,S1X_1000119,1,0.24,0.0001,0.9,5
SM_451,1000119-DB2,S2X_1000119.2,S2X_1000119,1,0.24,0.0001,0.9,5
SM_452,1002001-D1,S1X_1002001,S1X_1002001,3,0.208,0.0001,0.9,8.333333
SM_453,1002001-D2,S2X_1002001,S2X_1002001,3,0.208,0.0001,0.9,8.333333
SM_454,1002001-D3,S3X_1002001,S3X_1002001,3,0.208,0.0001,0.9,8.333333
SM_455,1002001-D4,S4X_1002001,S4X_1002001,3,0.208,0.0001,0.9,8.333333
SM_456,1002001-D5,S5X_1002001,S5X_1002001,3,0.208,0.0001,0.9,8.333333
SM_457,1002001-D6,S6X_1002001,S6X_1002001,3,0.208,0.0001,0.9,8.333333
SM_458,1002001-D7,S7X_1002001,S7X_1002001,3,0.208,0.0001,0.9,8.333333
SM_459,1002001-D8,S8X_1002001,S8X_1002001,3,0.208,0.0001,0.9,8.333333
SM_460,1002001-D9,S9X_1002001,S9X_1002001,3,0.208,0.0001,0.9,8.333333
SM_461,1002001-D10,S10X_1002001,S10X_1002001,3,0.208,0.0001,0.9,8.333333
SM_462,1002001-D11,S11X_1002001,S11X_1002001,3,0.208,0.0001,0.9,8.333333
SM_463,1002001-D12,S12X_1002001,S12X_1002001,3,0.208,0.0001,0.9,8.333333
SM_464,1002001-D13,S13X_1002001,S13X_1002001,3,0.208,0.0001,0.9,8.333333
SM_465,1002001-D14,S14X_1002001,S14X_1002001,3,0.208,0.0001,0.9,8.333333
SM_466,1002001-D15,S15X_1002001,S15X_1002001,3,0.208,0.0001,0.9,8.333333
SM_467,1002001-D16,S16X_1002001,S16X_1002001,3,0.208,0.0001,0.9,8.333333
SM_468,1002001-D17,S17X_1002001,S17X_1002001,3,0.208,0.0001,0.9,8.333333
SM_469,1002001-D18,S18X_1002001,S18X_1002001,3,0.208,0.0001,0.9,8.333333
SM_470,1000330-DC1,S1X_1000330.3,S1X_1000330,1,0.24,0.0001,0.9,10
SM_471,1000330-DC2,S2X_1000330.3,S2X_1000330,1,0.24,0.0001,0.9,10
SM_472,1000330-DC3,S3X_1000330.3,S3X_1000330,1,0.24,0.0001,0.9,10
SM_473,1000330-DC4,S4X_1000330.3,S4X_1000330,1,0.24,0.0001,0.9,10
SM_474,1000330-DC5,S5X_1000330.3,S5X_1000330,1,0.24,0.0001,0.9,10
SM_475,1000277-DC1,S1X_1000277.3,S1X_1000277,1,0.24,0.0001,0.9,25
SM_476,1001523-DA1,S1X_1001523.1,S1X_1001523,1,0.24,0.0001,0.9,6.25
SM_477,1001523-DA2,S2X_1001523.1,S2X_1001523,1,0.24,0.0001,0.9,6.25
SM_478,1001523-DA3,S3X_1001523.1,S3X_1001523,1,0.24,0.0001,0.9,6.25
SM_479,1001523-DA4,S4X_1001523.1,S4X_1001523,1,0.24,0.0001,0.9,6.25
SM_480,1001523-DB1,S1X_1001523.2,S1X_1001523,1,0.24,0.0001,0.9,6.25
SM_481,1001523-DB2,S2X_1001523.2,S2X_1001523,1,0.24,0.0001,0.9,6.25
SM_482,1001523-DB3,S3X_1001523.2,S3X_1001523,1,0.24,0.0001,0.9,6.25
SM_483,1001523-DB4,S4X_1001523.2,S4X_1001523,1,0.24,0.0001,0.9,6.25
SM_484,1001523-DC1,S1X_1001523.3,S1X_1001523,1,0.24,0.0001,0.9,6.25
SM_485,1001523-DC2,S2X_1001523.3,S2X_1001523,1,0.24,0.0001,0.9,6.25
SM_486,1001523-DC3,S3X_1001523.3,S3X_1001523,1,0.24,0.0001,0.9,6.25
SM_487,1001523-DC4,S4X_1001523.3,S4X_1001523,1,0.24,0.0001,0.9,6.25
SM_488,1001522-D1,S1X_1001522,S1X_1001522,3,0.208,0.0001,0.9,12.5
SM_489,1001522-D2,S2X_1001522,S2X_1001522,3,0.208,0.0001,0.9,12.5
SM_490,1001522-D3,S3X_1001522,S3X_1001522,3,0.208,0.0001,0.9,12.5
SM_491,1001522-D4,S4X_1001522,S4X_1001522,3,0.208,0.0001,0.9,12.5
SM_492,1001522-D5,S5X_1001522,S5X_1001522,3,0.208,0.0001,0.9,12.5
SM_493,1001522-D6,S6X_1001522,S6X_1001522,3,0.208,0.0001,0.9,12.5
SM_494,1001522-D7,S7X_1001522,S7X_1001522,3,0.208,0.0001,0.9,12.5
SM_495,1001522-D8,S8X_1001522,S8X_1001522,3,0.208,0.0001,0.9,12.5
SM_496,1001522-D9,S9X_1001522,S9X_1001522,3,0.208,0.0001,0.9,12.5
SM_497,1001522-D10,S10X_1001522,S10X_1001522,3,0.208,0.0001,0.9,12.5
SM_498,1001522-D11,S11X_1001522,S11X_1001522,3,0.208,0.0001,0.9,12.5
SM_499,1001522-D12,S12X_1001522,S12X_1001522,3,0.208,0.0001,0.9,12.5
SM_500,1001522-D13,S13X_1001522,S13X_1001522,3,0.208,0.0001,0.9,12.5
SM_501,1001522-D14,S14X_1001522,S14X_1001522,3,0.208,0.0001,0.9,12.5
SM_502,1001522-D15,S15X_1001522,S15X_1001522,3,0.208,0.0001,0.9,12.5
SM_503,1001522-D16,S16X_1001522,S16X_1001522,3,0.208,0.0001,0.9,12.5
SM_504,1001522-D17,S17X_1001522,S17X_1001522,3,0.208,0.0001,0.9,12.5
SM_505,1001522-D18,S18X_1001522,S18X_1001522,3,0.208,0.0001,0.9,12.5
SM_506,1001522-D19,S19X_1001522,S19X_1001522,3,0.208,0.0001,0.9,12.5
SM_507,1001522-D20,S20X_1001522,S20X_1001522,3,0.208,0.0001,0.9,12.5
SM_508,1001522-D21,S21X_1001522,S21X_1001522,3,0.208,0.0001,0.9,12.5
SM_509,1001522-D22,S22X_1001522,S22X_1001522,3,0.208,0.0001,0.9,12.5
SM_510,1001522-D23,S23X_1001522,S23X_1001522,3,0.208,0.0001,0.9,12.5
SM_511,1001522-D24,S24X_1001522,S24X_1001522,3,0.208,0.0001,0.9,12.5
SM_512,1001524-D1,S1X_1001524,S1X_1001524,3,0.208,0.0001,0.9,12.5
SM_513,1001524-D2,S2X_1001524,S2X_1001524,3,0.208,0.0001,0.9,12.5
SM_514,1001524-D3,S3X_1001524,S3X_1001524,3,0.208,0.0001,0.9,12.5
SM_515,1001524-D4,S4X_1001524,S4X_1001524,3,0.208,0.0001,0.9,12.5
SM_516,1001524-D5,S5X_1001524,S5X_1001524,3,0.208,0.0001,0.9,12.5
SM_517,1001524-D6,S6X_1001524,S6X_1001524,3,0.208,0.0001,0.9,12.5
SM_518,1001524-D7,S7X_1001524,S7X_1001524,3,0.208,0.0001,0.9,12.5
SM_519,1001524-D8,S8X_1001524,S8X_1001524,3,0.208,0.0001,0.9,12.5
SM_520,1001524-D9,S9X_1001524,S9X_1001524,3,0.208,0.0001,0.9,12.5
SM_521,1001524-D10,S10X_1001524,S10X_1001524,3,0.208,0.0001,0.9,12.5
SM_522,1001524-D11,S11X_1001524,S11X_1001524,3,0.208,0.0001,0.9,12.5
SM_523,1001524-D12,S12X_1001524,S12X_1001524,3,0.208,0.0001,0.9,12.5
SM_524,1001525-D1,S1X_1001525,S1X_1001525,3,0.208,0.0001,0.9,6.25
SM_525,1001525-D2,S2X_1001525,S2X_1001525,3,0.208,0.0001,0.9,6.25
SM_526,1001525-D3,S3X_1001525,S3X_1001525,3,0.208,0.0001,0.9,6.25
SM_527,1001525-D4,S4X_1001525,S4X_1001525,3,0.208,0.0001,0.9,6.25
SM_528,1001525-D5,S5X_1001525,S5X_1001525,3,0.208,0.0001,0.9,6.25
SM_529,1001525-D6,S6X_1001525,S6X_1001525,3,0.208,0.0001,0.9,6.25
SM_530,1001525-D7,S7X_1001525,S7X_1001525,3,0.208,0.0001,0.9,6.25
SM_531,1001525-D8,S8X_1001525,S8X_1001525,3,0.208,0.0001,0.9,6.25
SM_532,1001525-D9,S9X_1001525,S9X_1001525,3,0.208,0.0001,0.9,6.25
SM_533,1001525-D10,S10X_1001525,S10X_1001525,3,0.208,0.0001,0.9,6.25
SM_534,1001525-D11,S11X_1001525,S11X_1001525,3,0.208,0.0001,0.9,6.25
SM_535,1001525-D12,S12X_1001525,S12X_1001525,3,0.208,0.0001,0.9,6.25
SM_536,1001525-D13,S13X_1001525,S13X_1001525,3,0.208,0.0001,0.9,6.25
SM_537,1001525-D14,S14X_1001525,S14X_1001525,3,0.208,0.0001,0.9,6.25
SM_538,1001525-D15,S15X_1001525,S15X_1001525,3,0.208,0.0001,0.9,6.25
SM_539,1001525-D16,S16X_1001525,S16X_1001525,3,0.208,0.0001,0.9,6.25
SM_540,1001525-D17,S17X_1001525,S17X_1001525,3,0.208,0.0001,0.9,6.25
SM_541,1001525-D18,S18X_1001525,S18X_1001525,3,0.208,0.0001,0.9,6.25
SM_542,1001525-D19,S19X_1001525,S19X_1001525,3,0.208,0.0001,0.9,6.25
SM_543,1001525-D20,S20X_1001525,S20X_1001525,3,0.208,0.0001,0.9,6.25
SM_544,1001525-D21,S21X_1001525,S21X_1001525,3,0.208,0.0001,0.9,6.25
SM_545,1001525-D22,S22X_1001525,S22X_1001525,3,0.208,0.0001,0.9,6.25
SM_546,1001525-D23,S23X_1001525,S23X_1001525,3,0.208,0.0001,0.9,6.25
SM_547,1001525-D24,S24X_1001525,S24X_1001525,3,0.208,0.0001,0.9,6.25
SM_548,1001214-DB1,S1X_1001214.2,S1X_1001214,1,0.24,0.0001,0.9,16.66667
SM_549,1001214-DB2,S2X_1001214.2,S2X_1001214,1,0.24,0.0001,0.9,16.66667
SM_550,1001214-DB3,S3X_1001214.2,S3X_1001214,1,0.24,0.0001,0.9,16.66667
SM_551,1001214-DB4,S4X_1001214.2,S4X_1001214,1,0.24,0.0001,0.9,16.66667
SM_552,1001214-DB5,S5X_1001214.2,S5X_1001214,1,0.24,0.0001,0.9,16.66667
SM_553,1001214-DB6,S6X_1001214.2,S6X_1001214,1,0.24,0.0001,0.9,16.66667
SM_554,1001216-DB1,S1X_1001216.2,S1X_1001216,1,0.24,0.0001,0.9,16.66667
SM_555,1001216-DB2,S2X_1001216.2,S2X_1001216,1,0.24,0.0001,0.9,16.66667
SM_556,1001216-DB3,S3X_1001216.2,S3X_1001216,1,0.24,0.0001,0.9,16.66667
SM_557,1001216-DB4,S4X_1001216.2,S4X_1001216,1,0.24,0.0001,0.9,16.66667
SM_558,1001216-DB5,S5X_1001216.2,S5X_1001216,1,0.24,0.0001,0.9,16.66667
SM_559,1001216-DB6,S6X_1001216.2,S6X_1001216,1,0.24,0.0001,0.9,16.66667
SM_560,1001217-DA1,S1X_1001217.1,S1X_1001217,1,0.24,0.0001,0.9,12.5
SM_561,1001217-DA2,S2X_1001217.1,S2X_1001217,1,0.24,0.0001,0.9,12.5
SM_562,1001217-DA3,S3X_1001217.1,S3X_1001217,1,0.24,0.0001,0.9,12.5
SM_563,1001217-DA4,S4X_1001217.1,S4X_1001217,1,0.24,0.0001,0.9,12.5
SM_564,1001217-DA5,S5X_1001217.1,S5X_1001217,1,0.24,0.0001,0.9,12.5
SM_565,1001217-DA6,S6X_1001217.1,S6X_1001217,1,0.24,0.0001,0.9,12.5
SM_566,1001217-DA7,S7X_1001217.1,S7X_1001217,1,0.24,0.0001,0.9,12.5
SM_567,1001217-DA8,S8X_1001217.1,S8X_1001217,1,0.24,0.0001,0.9,12.5
SM_568,1001218-DA1,S1X_1001218.1,S1X_1001218,1,0.24,0.0001,0.9,16.66667
SM_569,1001218-DA2,S2X_1001218.1,S2X_1001218,1,0.24,0.0001,0.9,16.66667
SM_570,1001218-DA3,S3X_1001218.1,S3X_1001218,1,0.24,0.0001,0.9,16.66667
SM_571,1001218-DA4,S4X_1001218.1,S4X_1001218,1,0.24,0.0001,0.9,16.66667
SM_572,1001218-DA5,S5X_1001218.1,S5X_1001218,1,0.24,0.0001,0.9,16.66667
SM_573,1001218-DA6,S6X_1001218.1,S6X_1001218,1,0.24,0.0001,0.9,16.66667
SM_574,1001220-DA1,S1X_1001220.1,S1X_1001220,1,0.24,0.0001,0.9,20
SM_575,1001220-DA2,S2X_1001220.1,S2X_1001220,1,0.24,0.0001,0.9,20
SM_576,1001220-DA3,S3X_1001220.1,S3X_1001220,1,0.24,0.0001,0.9,20
SM_577,1001220-DA4,S4X_1001220.1,S4X_1001220,1,0.24,0.0001,0.9,20
SM_578,1001220-DA5,S5X_1001220.1,S5X_1001220,1,0.24,0.0001,0.9,20
SM_579,1001213-DB1,S1X_1001213.2,S1X_1001213,1,0.24,0.0001,0.9,9.375
SM_580,1001213-DB2,S2X_1001213.2,S2X_1001213,1,0.24,0.0001,0.9,9.375
SM_581,1001213-DB3,S3X_1001213.2,S3X_1001213,1,0.24,0.0001,0.9,9.375
SM_582,1001213-DB4,S4X_1001213.2,S4X_1001213,1,0.24,0.0001,0.9,9.375
SM_583,1001213-DB5,S5X_1001213.2,S5X_1001213,1,0.24,0.0001,0.9,9.375
SM_584,1001213-DB6,S6X_1001213.2,S6X_1001213,1,0.24,0.0001,0.9,9.375
SM_585,1001213-DB7,S7X_1001213.2,S7X_1001213,1,0.24,0.0001,0.9,9.375
SM_586,1001213-DB8,S8X_1001213.2,S8X_1001213,1,0.24,0.0001,0.9,9.375
SM_587,1001227-DC1,S1X_1001227.3,S1X_1001227,1,0.24,0.0001,0.9,20
SM_588,1001227-DC2,S2X_1001227.3,S2X_1001227,1,0.24,0.0001,0.9,20
SM_589,1001227-DC3,S3X_1001227.3,S3X_1001227,1,0.24,0.0001,0.9,20
SM_590,1001227-DC4,S4X_1001227.3,S4X_1001227,1,0.24,0.0001,0.9,20
SM_591,1001227-DC5,S5X_1001227.3,S5X_1001227,1,0.24,0.0001,0.9,20
SM_592,1001226-DC1,S1X_1001226.3,S1X_1001226,1,0.24,0.0001,0.9,25
SM_593,1001226-DC2,S2X_1001226.3,S2X_1001226,1,0.24,0.0001,0.9,25
SM_594,1001226-DC3,S3X_1001226.3,S3X_1001226,1,0.24,0.0001,0.9,25
SM_595,1001226-DC4,S4X_1001226.3,S4X_1001226,1,0.24,0.0001,0.9,25
SM_596,1001225-DC1,S1X_1001225.3,S1X_1001225,1,0.24,0.0001,0.9,20
SM_597,1001225-DC2,S2X_1001225.3,S2X_1001225,1,0.24,0.0001,0.9,20
SM_598,1001225-DC3,S3X_1001225.3,S3X_1001225,1,0.24,0.0001,0.9,20
SM_599,1001225-DC4,S4X_1001225.3,S4X_1001225,1,0.24,0.0001,0.9,20
SM_600,1001225-DC5,S5X_1001225.3,S5X_1001225,1,0.24,0.0001,0.9,20
SM_601,1001223-DA1,S1X_1001223.1,S1X_1001223,1,0.24,0.0001,0.9,25
SM_602,1001223-DA2,S2X_1001223.1,S2X_1001223,1,0.24,0.0001,0.9,25
SM_603,1001223-DA3,S3X_1001223.1,S3X_1001223,1,0.24,0.0001,0.9,25
SM_604,1001223-DA4,S4X_1001223.1,S4X_1001223,1,0.24,0.0001,0.9,25
SM_605,1001222-DA1,S1X_1001222.1,S1X_1001222,1,0.24,0.0001,0.9,12.5
SM_606,1001222-DA2,S2X_1001222.1,S2X_1001222,1,0.24,0.0001,0.9,12.5
SM_607,1001222-DA3,S3X_1001222.1,S3X_1001222,1,0.24,0.0001,0.9,12.5
SM_608,1001222-DA4,S4X_1001222.1,S4X_1001222,1,0.24,0.0001,0.9,12.5
SM_609,1001222-DA5,S5X_1001222.1,S5X_1001222,1,0.24,0.0001,0.9,12.5
SM_610,1001222-DA6,S6X_1001222.1,S6X_1001222,1,0.24,0.0001,0.9,12.5
SM_611,1001222-DA7,S7X_1001222.1,S7X_1001222,1,0.24,0.0001,0.9,12.5
SM_612,1001222-DA8,S8X_1001222.1,S8X_1001222,1,0.24,0.0001,0.9,12.5
SM_613,1001221-DA1,S1X_1001221.1,S1X_1001221,1,0.24,0.0001,0.9,100
SM_614,1001219-DA1,S1X_1001219.1,S1X_1001219,1,0.24,0.0001,0.9,37.5
SM_615,1001219-DA2,S2X_1001219.1,S2X_1001219,1,0.24,0.0001,0.9,37.5
SM_616,1001224-DC1,S1X_1001224.3,S1X_1001224,1,0.24,0.0001,0.9,14.28571
SM_617,1001224-DC2,S2X_1001224.3,S2X_1001224,1,0.24,0.0001,0.9,14.28571
SM_618,1001224-DC3,S3X_1001224.3,S3X_1001224,1,0.24,0.0001,0.9,14.28571
SM_619,1001224-DC4,S4X_1001224.3,S4X_1001224,1,0.24,0.0001,0.9,14.28571
SM_620,1001224-DC5,S5X_1001224.3,S5X_1001224,1,0.24,0.0001,0.9,14.28571
SM_621,1001224-DC6,S6X_1001224.3,S6X_1001224,1,0.24,0.0001,0.9,14.28571
SM_622,1001224-DC7,S7X_1001224.3,S7X_1001224,1,0.24,0.0001,0.9,14.28571
SM_623,1001228-DB1,S1X_1001228.2,S1X_1001228,1,0.24,0.0001,0.9,12.5
SM_624,1001228-DB2,S2X_1001228.2,S2X_1001228,1,0.24,0.0001,0.9,12.5
SM_625,1001228-DB3,S3X_1001228.2,S3X_1001228,1,0.24,0.0001,0.9,12.5
SM_626,1001228-DB4,S4X_1001228.2,S4X_1001228,1,0.24,0.0001,0.9,12.5
SM_627,1001228-DB5,S5X_1001228.2,S5X_1001228,1,0.24,0.0001,0.9,12.5
SM_628,1001228-DB6,S6X_1001228.2,S6X_1001228,1,0.24,0.0001,0.9,12.5
SM_629,1001228-DB7,S7X_1001228.2,S7X_1001228,1,0.24,0.0001,0.9,12.5
SM_630,1001228-DB8,S8X_1001228.2,S8X_1001228,1,0.24,0.0001,0.9,12.5
SM_631,1001229-DB1,S1X_1001229.2,S1X_1001229,1,0.24,0.0001,0.9,10
SM_632,1001229-DB2,S2X_1001229.2,S2X_1001229,1,0.24,0.0001,0.9,10
SM_633,1001229-DB3,S3X_1001229.2,S3X_1001229,1,0.24,0.0001,0.9,10
SM_634,1001229-DB4,S4X_1001229.2,S4X_1001229,1,0.24,0.0001,0.9,10
SM_635,1001229-DB5,S5X_1001229.2,S5X_1001229,1,0.24,0.0001,0.9,10
SM_636,1001229-DB6,S6X_1001229.2,S6X_1001229,1,0.24,0.0001,0.9,10
SM_637,1001229-DB7,S7X_1001229.2,S7X_1001229,1,0.24,0.0001,0.9,10
SM_638,1001229-DB8,S8X_1001229.2,S8X_1001229,1,0.24,0.0001,0.9,10
SM_639,1001229-DB9,S9X_1001229.2,S9X_1001229,1,0.24,0.0001,0.9,10
SM_640,1001229-DB10,S10X_1001229.2,S10X_1001229,1,0.24,0.0001,0.9,10
SM_641,1001230-DB1,S1X_1001230.2,S1X_1001230,1,0.24,0.0001,0.9,11.11111
SM_642,1001230-DB2,S2X_1001230.2,S2X_1001230,1,0.24,0.0001,0.9,11.11111
SM_643,1001230-DB3,S3X_1001230.2,S3X_1001230,1,0.24,0.0001,0.9,11.11111
SM_644,1001230-DB4,S4X_1001230.2,S4X_1001230,1,0.24,0.0001,0.9,11.11111
SM_645,1001230-DB5,S5X_1001230.2,S5X_1001230,1,0.24,0.0001,0.9,11.11111
SM_646,1001230-DB6,S6X_1001230.2,S6X_1001230,1,0.24,0.0001,0.9,11.11111
SM_647,1001230-DB7,S7X_1001230.2,S7X_1001230,1,0.24,0.0001,0.9,11.11111
SM_648,1001230-DB8,S8X_1001230.2,S8X_1001230,1,0.24,0.0001,0.9,11.11111
SM_649,1001230-DB9,S9X_1001230.2,S9X_1001230,1,0.24,0.0001,0.9,11.11111
SM_650,1001234-DC1,S1X_1001234.3,S1X_1001234,1,0.24,0.0001,0.9,10
SM_651,1001234-DC2,S2X_1001234.3,S2X_1001234,1,0.24,0.0001,0.9,10
SM_652,1001234-DC3,S3X_1001234.3,S3X_1001234,1,0.24,0.0001,0.9,10
SM_653,1001234-DC4,S4X_1001234.3,S4X_1001234,1,0.24,0.0001,0.9,10
SM_654,1001234-DC5,S5X_1001234.3,S5X_1001234,1,0.24,0.0001,0.9,10
SM_655,1001234-DC6,S6X_1001234.3,S6X_1001234,1,0.24,0.0001,0.9,10
SM_656,1001234-DC7,S7X_1001234.3,S7X_1001234,1,0.24,0.0001,0.9,10
SM_657,1001234-DC8,S8X_1001234.3,S8X_1001234,1,0.24,0.0001,0.9,10
SM_658,1001234-DC9,S9X_1001234.3,S9X_1001234,1,0.24,0.0001,0.9,10
SM_659,1001234-DC10,S10X_1001234.3,S10X_1001234,1,0.24,0.0001,0.9,10
SM_660,1001233-DC1,S1X_1001233.3,S1X_1001233,1,0.24,0.0001,0.9,25
SM_661,1001233-DC2,S2X_1001233.3,S2X_1001233,1,0.24,0.0001,0.9,25
SM_662,1001232-DC1,S1X_1001232.3,S1X_1001232,1,0.24,0.0001,0.9,16.66667
SM_663,1001232-DC2,S2X_1001232.3,S2X_1001232,1,0.24,0.0001,0.9,16.66667
SM_664,1001232-DC3,S3X_1001232.3,S3X_1001232,1,0.24,0.0001,0.9,16.66667
SM_665,1001232-DC4,S4X_1001232.3,S4X_1001232,1,0.24,0.0001,0.9,16.66667
SM_666,1001232-DC5,S5X_1001232.3,S5X_1001232,1,0.24,0.0001,0.9,16.66667
SM_667,1001232-DC6,S6X_1001232.3,S6X_1001232,1,0.24,0.0001,0.9,16.66667
SM_668,1001231-DC1,S1X_1001231.3,S1X_1001231,1,0.24,0.0001,0.9,12.5
SM_669,1001231-DC2,S2X_1001231.3,S2X_1001231,1,0.24,0.0001,0.9,12.5
SM_670,1001231-DC3,S3X_1001231.3,S3X_1001231,1,0.24,0.0001,0.9,12.5
SM_671,1001231-DC4,S4X_1001231.3,S4X_1001231,1,0.24,0.0001,0.9,12.5
SM_672,1001231-DC5,S5X_1001231.3,S5X_1001231,1,0.24,0.0001,0.9,12.5
SM_673,1001231-DC6,S6X_1001231.3,S6X_1001231,1,0.24,0.0001,0.9,12.5
SM_674,1001231-DC7,S7X_1001231.3,S7X_1001231,1,0.24,0.0001,0.9,12.5
SM_675,1001231-DC8,S8X_1001231.3,S8X_1001231,1,0.24,0.0001,0.9,12.5
SM_676,1001637-D1,S1X_1001637,S1X_1001637,3,0.208,0.0001,0.9,25
SM_677,1001637-D2,S2X_1001637,S2X_1001637,3,0.208,0.0001,0.9,25
SM_678,1001637-D3,S3X_1001637,S3X_1001637,3,0.208,0.0001,0.9,25
SM_679,1001637-D4,S4X_1001637,S4X_1001637,3,0.208,0.0001,0.9,25
SM_680,1001637-D5,S5X_1001637,S5X_1001637,3,0.208,0.0001,0.9,25
SM_681,1001637-D6,S6X_1001637,S6X_1001637,3,0.208,0.0001,0.9,25
SM_682,1003127-DB1,S1X_1003127.2,S1X_1003127,1,0.24,0.0001,0.9,10
SM_683,1003133-DB1,S1X_1003133.2,S1X_1003133,1,0.24,0.0001,0.9,25
SM_684,1003134-D1,S1X_1003134,S1X_1003134,3,0.208,0.0001,0.9,50
SM_685,1003134-D2,S2X_1003134,S2X_1003134,3,0.208,0.0001,0.9,50
SM_686,1003134-D3,S3X_1003134,S3X_1003134,3,0.208,0.0001,0.9,50
SM_687,1003125-DA1,S1X_1003125.1,S1X_1003125,1,0.24,0.0001,0.9,15
SM_688,1003130-D1,S1X_1003130,S1X_1003130,3,0.208,0.0001,0.9,2.97625
SM_689,1003130-D2,S2X_1003130,S2X_1003130,3,0.208,0.0001,0.9,2.97625
SM_690,1003130-D3,S3X_1003130,S3X_1003130,3,0.208,0.0001,0.9,2.97625
SM_691,1003130-D4,S4X_1003130,S4X_1003130,3,0.208,0.0001,0.9,2.97625
SM_692,1003130-D5,S5X_1003130,S5X_1003130,3,0.208,0.0001,0.9,2.97625
SM_693,1003130-D6,S6X_1003130,S6X_1003130,3,0.208,0.0001,0.9,2.97625
SM_694,1003130-D7,S7X_1003130,S7X_1003130,3,0.208,0.0001,0.9,2.97625
SM_695,1003130-D8,S8X_1003130,S8X_1003130,3,0.208,0.0001,0.9,2.97625
SM_696,1003130-D9,S9X_1003130,S9X_1003130,3,0.208,0.0001,0.9,2.97625
SM_697,1003130-D10,S10X_1003130,S10X_1003130,3,0.208,0.0001,0.9,2.97625
SM_698,1003130-D11,S11X_1003130,S11X_1003130,3,0.208,0.0001,0.9,2.97625
SM_699,1003130-D12,S12X_1003130,S12X_1003130,3,0.208,0.0001,0.9,2.97625
SM_700,1003130-D13,S13X_1003130,S13X_1003130,3,0.208,0.0001,0.9,2.97625
SM_701,1003130-D14,S14X_1003130,S14X_1003130,3,0.208,0.0001,0.9,2.97625
SM_702,1003130-D15,S15X_1003130,S15X_1003130,3,0.208,0.0001,0.9,2.97625
SM_703,1003130-D16,S16X_1003130,S16X_1003130,3,0.208,0.0001,0.9,2.97625
SM_704,1003130-D17,S17X_1003130,S17X_1003130,3,0.208,0.0001,0.9,2.97625
SM_705,1003130-D18,S18X_1003130,S18X_1003130,3,0.208,0.0001,0.9,2.97625
SM_706,1003130-D19,S19X_1003130,S19X_1003130,3,0.208,0.0001,0.9,2.97625
SM_707,1003130-D20,S20X_1003130,S20X_1003130,3,0.208,0.0001,0.9,2.97625
SM_708,1003130-D21,S21X_1003130,S21X_1003130,3,0.208,0.0001,0.9,2.97625
SM_709,1003130-D22,S22X_1003130,S22X_1003130,3,0.208,0.0001,0.9,2.97625
SM_710,1003130-D23,S23X_1003130,S23X_1003130,3,0.208,0.0001,0.9,2.97625
SM_711,1003130-D24,S24X_1003130,S24X_1003130,3,0.208,0.0001,0.9,2.97625
SM_712,1003130-D25,S25X_1003130,S25X_1003130,3,0.208,0.0001,0.9,2.97625
SM_713,1003130-D26,S26X_1003130,S26X_1003130,3,0.208,0.0001,0.9,2.97625
SM_714,1003130-D27,S27X_1003130,S27X_1003130,3,0.208,0.0001,0.9,2.97625
SM_715,1003130-D28,S28X_1003130,S28X_1003130,3,0.208,0.0001,0.9,2.97625
SM_716,1003130-D29,S29X_1003130,S29X_1003130,3,0.208,0.0001,0.9,2.97625
SM_717,1003130-D30,S30X_1003130,S30X_1003130,3,0.208,0.0001,0.9,2.97625
SM_718,1003130-D31,S31X_1003130,S31X_1003130,3,0.208,0.0001,0.9,2.97625
SM_719,1003130-D32,S32X_1003130,S32X_1003130,3,0.208,0.0001,0.9,2.97625
SM_720,1003130-D33,S33X_1003130,S33X_1003130,3,0.208,0.0001,0.9,2.97625
SM_721,1003130-D34,S34X_1003130,S34X_1003130,3,0.208,0.0001,0.9,2.97625
SM_722,1003130-D35,S35X_1003130,S35X_1003130,3,0.208,0.0001,0.9,2.97625
SM_723,1003130-D36,S36X_1003130,S36X_1003130,3,0.208,0.0001,0.9,2.97625
SM_724,1003130-D37,S37X_1003130,S37X_1003130,3,0.208,0.0001,0.9,2.97625
SM_725,1003130-D38,S38X_1003130,S38X_1003130,3,0.208,0.0001,0.9,2.97625
SM_726,1003130-D39,S39X_1003130,S39X_1003130,3,0.208,0.0001,0.9,2.97625
SM_727,1003130-D40,S40X_1003130,S40X_1003130,3,0.208,0.0001,0.9,2.97625
SM_728,1003130-D41,S41X_1003130,S41X_1003130,3,0.208,0.0001,0.9,2.97625
SM_729,1003130-D42,S42X_1003130,S42X_1003130,3,0.208,0.0001,0.9,2.97625
SM_730,1003130-D43,S43X_1003130,S43X_1003130,3,0.208,0.0001,0.9,2.97625
SM_731,1003130-D44,S44X_1003130,S44X_1003130,3,0.208,0.0001,0.9,2.97625
SM_732,1003130-D45,S45X_1003130,S45X_1003130,3,0.208,0.0001,0.9,2.97625
SM_733,1003130-D46,S46X_1003130,S46X_1003130,3,0.208,0.0001,0.9,2.97625
SM_734,1003130-D47,S47X_1003130,S47X_1003130,3,0.208,0.0001,0.9,2.97625
SM_735,1003130-D48,S48X_1003130,S48X_1003130,3,0.208,0.0001,0.9,2.97625
SM_736,1003130-D49,S49X_1003130,S49X_1003130,3,0.208,0.0001,0.9,2.97625
SM_737,1003130-D50,S50X_1003130,S50X_1003130,3,0.208,0.0001,0.9,2.97625
SM_738,1003130-D51,S51X_1003130,S51X_1003130,3,0.208,0.0001,0.9,2.97625
SM_739,1003130-D52,S52X_1003130,S52X_1003130,3,0.208,0.0001,0.9,2.97625
SM_740,1003130-D53,S53X_1003130,S53X_1003130,3,0.208,0.0001,0.9,2.97625
SM_741,1003130-D54,S54X_1003130,S54X_1003130,3,0.208,0.0001,0.9,2.97625
SM_742,1003130-D55,S55X_1003130,S55X_1003130,3,0.208,0.0001,0.9,2.97625
SM_743,1003130-D56,S56X_1003130,S56X_1003130,3,0.208,0.0001,0.9,2.97625
SM_744,1003130-D57,S57X_1003130,S57X_1003130,3,0.208,0.0001,0.9,2.97625
SM_745,1003130-D58,S58X_1003130,S58X_1003130,3,0.208,0.0001,0.9,2.97625
SM_746,1003130-D59,S59X_1003130,S59X_1003130,3,0.208,0.0001,0.9,2.97625
SM_747,1003130-D60,S60X_1003130,S60X_1003130,3,0.208,0.0001,0.9,2.97625
SM_748,1003130-D61,S61X_1003130,S61X_1003130,3,0.208,0.0001,0.9,2.97625
SM_749,1003130-D62,S62X_1003130,S62X_1003130,3,0.208,0.0001,0.9,2.97625
SM_750,1003130-D63,S63X_1003130,S63X_1003130,3,0.208,0.0001,0.9,2.97625
SM_751,1003130-D64,S64X_1003130,S64X_1003130,3,0.208,0.0001,0.9,2.97625
SM_752,1003130-D65,S65X_1003130,S65X_1003130,3,0.208,0.0001,0.9,2.97625
SM_753,1003130-D66,S66X_1003130,S66X_1003130,3,0.208,0.0001,0.9,2.97625
SM_754,1003130-D67,S67X_1003130,S67X_1003130,3,0.208,0.0001,0.9,2.97625
SM_755,1003130-D68,S68X_1003130,S68X_1003130,3,0.208,0.0001,0.9,2.97625
SM_756,1003130-D69,S69X_1003130,S69X_1003130,3,0.208,0.0001,0.9,2.97625
SM_757,1003130-D70,S70X_1003130,S70X_1003130,3,0.208,0.0001,0.9,2.97625
SM_758,1003130-D71,S71X_1003130,S71X_1003130,3,0.208,0.0001,0.9,2.97625
SM_759,1003130-D72,S72X_1003130,S72X_1003130,3,0.208,0.0001,0.9,2.97625
SM_760,1003130-D73,S73X_1003130,S73X_1003130,3,0.208,0.0001,0.9,2.97625
SM_761,1003130-D74,S74X_1003130,S74X_1003130,3,0.208,0.0001,0.9,2.97625
SM_762,1003130-D75,S75X_1003130,S75X_1003130,3,0.208,0.0001,0.9,2.97625
SM_763,1003130-D76,S76X_1003130,S76X_1003130,3,0.208,0.0001,0.9,2.97625
SM_764,1003130-D77,S77X_1003130,S77X_1003130,3,0.208,0.0001,0.9,2.97625
SM_765,1003130-D78,S78X_1003130,S78X_1003130,3,0.208,0.0001,0.9,2.97625
SM_766,1003130-D79,S79X_1003130,S79X_1003130,3,0.208,0.0001,0.9,2.97625
SM_767,1003130-D80,S80X_1003130,S80X_1003130,3,0.208,0.0001,0.9,2.97625
SM_768,1003130-D81,S81X_1003130,S81X_1003130,3,0.208,0.0001,0.9,2.97625
SM_769,1003130-D82,S82X_1003130,S82X_1003130,3,0.208,0.0001,0.9,2.97625
SM_770,1003130-D83,S83X_1003130,S83X_1003130,3,0.208,0.0001,0.9,2.97625
SM_771,1003130-D84,S84X_1003130,S84X_1003130,3,0.208,0.0001,0.9,2.97625
SM_772,1003130-D85,S85X_1003130,S85X_1003130,3,0.208,0.0001,0.9,2.97625
SM_773,1003130-D86,S86X_1003130,S86X_1003130,3,0.208,0.0001,0.9,2.97625
SM_774,1003130-D87,S87X_1003130,S87X_1003130,3,0.208,0.0001,0.9,2.97625
SM_775,1003130-D88,S88X_1003130,S88X_1003130,3,0.208,0.0001,0.9,2.97625
SM_776,1003130-D89,S89X_1003130,S89X_1003130,3,0.208,0.0001,0.9,2.97625
SM_777,1003130-D90,S90X_1003130,S90X_1003130,3,0.208,0.0001,0.9,2.97625
SM_778,1003130-D91,S91X_1003130,S91X_1003130,3,0.208,0.0001,0.9,2.97625
SM_779,1003130-D92,S92X_1003130,S92X_1003130,3,0.208,0.0001,0.9,2.97625
SM_780,1003130-D93,S93X_1003130,S93X_1003130,3,0.208,0.0001,0.9,2.97625
SM_781,1003130-D94,S94X_1003130,S94X_1003130,3,0.208,0.0001,0.9,2.97625
SM_782,1003130-D95,S95X_1003130,S95X_1003130,3,0.208,0.0001,0.9,2.97625
SM_783,1003130-D96,S96X_1003130,S96X_1003130,3,0.208,0.0001,0.9,2.97625
SM_784,1003130-D97,S97X_1003130,S97X_1003130,3,0.208,0.0001,0.9,2.97625
SM_785,1003130-D98,S98X_1003130,S98X_1003130,3,0.208,0.0001,0.9,2.97625
SM_786,1003130-D99,S99X_1003130,S99X_1003130,3,0.208,0.0001,0.9,2.97625
SM_787,1003130-D100,S100X_1003130,S100X_1003130,3,0.208,0.0001,0.9,2.97625
SM_788,1003130-D101,S101X_1003130,S101X_1003130,3,0.208,0.0001,0.9,2.97625
SM_789,1003130-D102,S102X_1003130,S102X_1003130,3,0.208,0.0001,0.9,2.97625
SM_790,1003130-D103,S103X_1003130,S103X_1003130,3,0.208,0.0001,0.9,2.97625
SM_791,1003130-D104,S104X_1003130,S104X_1003130,3,0.208,0.0001,0.9,2.97625
SM_792,1003130-D105,S105X_1003130,S105X_1003130,3,0.208,0.0001,0.9,2.97625
SM_793,1003130-D106,S106X_1003130,S106X_1003130,3,0.208,0.0001,0.9,2.97625
SM_794,1003130-D107,S107X_1003130,S107X_1003130,3,0.208,0.0001,0.9,2.97625
SM_795,1003130-D108,S108X_1003130,S108X_1003130,3,0.208,0.0001,0.9,2.97625
SM_796,1003130-D109,S109X_1003130,S109X_1003130,3,0.208,0.0001,0.9,2.97625
SM_797,1003130-D110,S110X_1003130,S110X_1003130,3,0.208,0.0001,0.9,2.97625
SM_798,1003130-D111,S111X_1003130,S111X_1003130,3,0.208,0.0001,0.9,2.97625
SM_799,1003130-D112,S112X_1003130,S112X_1003130,3,0.208,0.0001,0.9,2.97625
SM_800,1003130-D113,S113X_1003130,S113X_1003130,3,0.208,0.0001,0.9,2.97625
SM_801,1003130-D114,S114X_1003130,S114X_1003130,3,0.208,0.0001,0.9,2.97625
SM_802,1003130-D115,S115X_1003130,S115X_1003130,3,0.208,0.0001,0.9,2.97625
SM_803,1003130-D116,S116X_1003130,S116X_1003130,3,0.208,0.0001,0.9,2.97625
SM_804,1003130-D117,S117X_1003130,S117X_1003130,3,0.208,0.0001,0.9,2.97625
SM_805,1003130-D118,S118X_1003130,S118X_1003130,3,0.208,0.0001,0.9,2.97625
SM_806,1003130-D119,S119X_1003130,S119X_1003130,3,0.208,0.0001,0.9,2.97625
SM_807,1003130-D120,S120X_1003130,S120X_1003130,3,0.208,0.0001,0.9,2.97625
SM_808,1003130-D121,S121X_1003130,S121X_1003130,3,0.208,0.0001,0.9,2.97625
SM_809,1003130-D122,S122X_1003130,S122X_1003130,3,0.208,0.0001,0.9,2.97625
SM_810,1003130-D123,S123X_1003130,S123X_1003130,3,0.208,0.0001,0.9,2.97625
SM_811,1003130-D124,S124X_1003130,S124X_1003130,3,0.208,0.0001,0.9,2.97625
SM_812,1003130-D125,S125X_1003130,S125X_1003130,3,0.208,0.0001,0.9,2.97625
SM_813,1003130-D126,S126X_1003130,S126X_1003130,3,0.208,0.0001,0.9,2.97625
SM_814,1003130-D127,S127X_1003130,S127X_1003130,3,0.208,0.0001,0.9,2.97625
SM_815,1003130-D128,S128X_1003130,S128X_1003130,3,0.208,0.0001,0.9,2.97625
SM_816,1003130-D129,S129X_1003130,S129X_1003130,3,0.208,0.0001,0.9,2.97625
SM_817,1003130-D130,S130X_1003130,S130X_1003130,3,0.208,0.0001,0.9,2.97625
SM_818,1003130-D131,S131X_1003130,S131X_1003130,3,0.208,0.0001,0.9,2.97625
SM_819,1003130-D132,S132X_1003130,S132X_1003130,3,0.208,0.0001,0.9,2.97625
SM_820,1003130-D133,S133X_1003130,S133X_1003130,3,0.208,0.0001,0.9,2.97625
SM_821,1003130-D134,S134X_1003130,S134X_1003130,3,0.208,0.0001,0.9,2.97625
SM_822,1003130-D135,S135X_1003130,S135X_1003130,3,0.208,0.0001,0.9,2.97625
SM_823,1003130-D136,S136X_1003130,S136X_1003130,3,0.208,0.0001,0.9,2.97625
SM_824,1003130-D137,S137X_1003130,S137X_1003130,3,0.208,0.0001,0.9,2.97625
SM_825,1003130-D138,S138X_1003130,S138X_1003130,3,0.208,0.0001,0.9,2.97625
SM_826,1003130-D139,S139X_1003130,S139X_1003130,3,0.208,0.0001,0.9,2.97625
SM_827,1003130-D140,S140X_1003130,S140X_1003130,3,0.208,0.0001,0.9,2.97625
SM_828,1003130-D141,S141X_1003130,S141X_1003130,3,0.208,0.0001,0.9,2.97625
SM_829,1003130-D142,S142X_1003130,S142X_1003130,3,0.208,0.0001,0.9,2.97625
SM_830,1003130-D143,S143X_1003130,S143X_1003130,3,0.208,0.0001,0.9,2.97625
SM_831,1003130-D144,S144X_1003130,S144X_1003130,3,0.208,0.0001,0.9,2.97625
SM_832,1003130-D145,S145X_1003130,S145X_1003130,3,0.208,0.0001,0.9,2.97625
SM_833,1003130-D146,S146X_1003130,S146X_1003130,3,0.208,0.0001,0.9,2.97625
SM_834,1003130-D147,S147X_1003130,S147X_1003130,3,0.208,0.0001,0.9,2.97625
SM_835,1003130-D148,S148X_1003130,S148X_1003130,3,0.208,0.0001,0.9,2.97625
SM_836,1003130-D149,S149X_1003130,S149X_1003130,3,0.208,0.0001,0.9,2.97625
SM_837,1003130-D150,S150X_1003130,S150X_1003130,3,0.208,0.0001,0.9,2.97625
SM_838,1003130-D151,S151X_1003130,S151X_1003130,3,0.208,0.0001,0.9,2.97625
SM_839,1003130-D152,S152X_1003130,S152X_1003130,3,0.208,0.0001,0.9,2.97625
SM_840,1003130-D153,S153X_1003130,S153X_1003130,3,0.208,0.0001,0.9,2.97625
SM_841,1003130-D154,S154X_1003130,S154X_1003130,3,0.208,0.0001,0.9,2.97625
SM_842,1003130-D155,S155X_1003130,S155X_1003130,3,0.208,0.0001,0.9,2.97625
SM_843,1003130-D156,S156X_1003130,S156X_1003130,3,0.208,0.0001,0.9,2.97625
SM_844,1003130-D157,S157X_1003130,S157X_1003130,3,0.208,0.0001,0.9,2.97625
SM_845,1003130-D158,S158X_1003130,S158X_1003130,3,0.208,0.0001,0.9,2.97625
SM_846,1003130-D159,S159X_1003130,S159X_1003130,3,0.208,0.0001,0.9,2.97625
SM_847,1003130-D160,S160X_1003130,S160X_1003130,3,0.208,0.0001,0.9,2.97625
SM_848,1003130-D161,S161X_1003130,S161X_1003130,3,0.208,0.0001,0.9,2.97625
SM_849,1003130-D162,S162X_1003130,S162X_1003130,3,0.208,0.0001,0.9,2.97625
SM_850,1003130-D163,S163X_1003130,S163X_1003130,3,0.208,0.0001,0.9,2.97625
SM_851,1003130-D164,S164X_1003130,S164X_1003130,3,0.208,0.0001,0.9,2.97625
SM_852,1003130-D165,S165X_1003130,S165X_1003130,3,0.208,0.0001,0.9,2.97625
SM_853,1003130-D166,S166X_1003130,S166X_1003130,3,0.208,0.0001,0.9,2.97625
SM_854,1003130-D167,S167X_1003130,S167X_1003130,3,0.208,0.0001,0.9,2.97625
SM_855,1003130-D168,S168X_1003130,S168X_1003130,3,0.208,0.0001,0.9,2.97625
SM_856,1003140-D1,S1X_1003140,S1X_1003140,3,0.208,0.0001,0.9,166.67
SM_857,1003140-D2,S2X_1003140,S2X_1003140,3,0.208,0.0001,0.9,166.67
SM_858,1003140-D3,S3X_1003140,S3X_1003140,3,0.208,0.0001,0.9,166.67
SM_859,1007732-DA1,S1X_1007732.1,S1X_1007732,1,0.24,0.0001,0.9,25
SM_860,1007732-DB1,S1X_1007732.2,S1X_1007732,1,0.24,0.0001,0.9,25
...